LTspice 24.0.12 for Windows
Circuit: Lab 1: Phasors and Impedance of the RC Circuit
Start Time: Mon Mar 24 15:47:55 2025
solver = Normal
Maximum thread count: 4



.OP point found by inspection.
.step f=2000



.step f=20000
tnom = 27
temp = 27
method = modified trap
.step f=200000
Total elapsed time: 2.594 seconds.

